
 OpenBabel04181608493D

 15 14  0  0  0  0  0  0  0  0999 V2000
    2.7345    0.6997   -1.1462 O   0  0  0  0  0  0  0  0  0  0  0  0
    2.1577    0.1524   -0.2183 C   0  0  0  0  0  0  0  0  0  0  0  0
    0.6611    0.0778   -0.2254 C   0  0  0  0  0  0  0  0  0  0  0  0
    2.9219   -0.4536    0.9415 C   0  0  0  0  0  0  0  0  0  0  0  0
    4.4338   -0.3488    0.8954 C   0  0  0  0  0  0  0  0  0  0  0  0
    5.0058    0.1992   -0.0347 O   0  0  0  0  0  0  0  0  0  0  0  0
    5.2508   -0.9272    2.0108 C   0  0  0  0  0  0  0  0  0  0  0  0
    0.2464    0.5628   -1.1350 H   0  0  0  0  0  0  0  0  0  0  0  0
    0.2572    0.5944    0.6702 H   0  0  0  0  0  0  0  0  0  0  0  0
    0.3402   -0.9848   -0.2097 H   0  0  0  0  0  0  0  0  0  0  0  0
    2.6576   -1.5313    0.9968 H   0  0  0  0  0  0  0  0  0  0  0  0
    2.5752    0.0421    1.8733 H   0  0  0  0  0  0  0  0  0  0  0  0
    4.5995   -1.3907    2.7819 H   0  0  0  0  0  0  0  0  0  0  0  0
    5.8513   -0.1245    2.4876 H   0  0  0  0  0  0  0  0  0  0  0  0
    5.9340   -1.7040    1.6080 H   0  0  0  0  0  0  0  0  0  0  0  0
  1  2  2  0  0  0  0
  2  3  1  0  0  0  0
  2  4  1  0  0  0  0
  3  8  1  0  0  0  0
  3  9  1  0  0  0  0
  3 10  1  0  0  0  0
  4  5  1  0  0  0  0
  4 11  1  0  0  0  0
  4 12  1  0  0  0  0
  5  6  2  0  0  0  0
  5  7  1  0  0  0  0
  7 13  1  0  0  0  0
  7 14  1  0  0  0  0
  7 15  1  0  0  0  0
M  END
