
 OpenBabel04201614323D

 13 12  0  0  1  0  0  0  0  0999 V2000
    0.0390   -0.0280    0.0000 N   0  0  0  0  0  0  0  0  0  0  0  0
    1.4990   -0.0430    0.0000 C   0  0  2  0  0  0  0  0  0  0  0  0
    2.0550    1.3610    0.0000 C   0  0  0  0  0  0  0  0  0  0  0  0
    1.3210    2.3560    0.0110 O   0  0  0  0  0  0  0  0  0  0  0  0
    1.9560   -0.8660   -1.2170 C   0  0  0  0  0  0  0  0  0  0  0  0
   -0.5240    0.8940    0.0000 H   0  0  0  0  0  0  0  0  0  0  0  0
   -0.5430   -0.9380    0.0000 H   0  0  0  0  0  0  0  0  0  0  0  0
    1.8470   -0.5340    0.9280 H   0  0  0  0  0  0  0  0  0  0  0  0
    3.0580   -0.9390   -1.2740 H   0  0  0  0  0  0  0  0  0  0  0  0
    1.5710   -1.9030   -1.1810 H   0  0  0  0  0  0  0  0  0  0  0  0
    1.6100   -0.4250   -2.1720 H   0  0  0  0  0  0  0  0  0  0  0  0
    3.4810    1.4700    0.0000 O   0  0  0  0  0  0  0  0  0  0  0  0
    3.8980    0.5280    0.0000 H   0  0  0  0  0  0  0  0  0  0  0  0
  1  2  1  0  0  0  0
  1  6  1  0  0  0  0
  1  7  1  0  0  0  0
  2  3  1  0  0  0  0
  2  8  1  1  0  0  0
  3 12  1  0  0  0  0
  3  4  2  0  0  0  0
  5 10  1  0  0  0  0
  5  2  1  0  0  0  0
  9  5  1  0  0  0  0
 11  5  1  0  0  0  0
 12 13  1  0  0  0  0
M  END
