
 OpenBabel04201614323D

 27 26  0  0  1  0  0  0  0  0999 V2000
    0.7350    2.2190    1.3890 N   0  0  0  0  0  0  0  0  0  0  0  0
    2.1890    2.2850    1.2740 C   0  0  2  0  0  0  0  0  0  0  0  0
    2.6000    3.0100    0.0140 C   0  0  0  0  0  0  0  0  0  0  0  0
    1.7740    3.4630   -0.7740 O   0  0  0  0  0  0  0  0  0  0  0  0
    2.7600    0.8380    1.3080 C   0  0  0  0  0  0  0  0  0  0  0  0
    4.3020    0.7310    1.4730 C   0  0  0  0  0  0  0  0  0  0  0  0
    4.7860   -0.7290    1.4600 C   0  0  0  0  0  0  0  0  0  0  0  0
    6.2670   -0.7700    1.6420 N   0  0  0  0  0  0  0  0  0  0  0  0
    7.0070   -1.8740    1.6730 C   0  0  0  0  0  0  0  0  0  0  0  0
    6.5180   -3.0740    1.5380 N   0  0  0  0  0  0  0  0  0  0  0  0
    8.2850   -1.7520    1.8460 N   0  0  0  0  0  0  0  0  0  0  0  0
    0.1150    2.6270    0.6820 H   0  0  0  0  0  0  0  0  0  0  0  0
    0.2730    1.7630    2.1830 H   0  0  0  0  0  0  0  0  0  0  0  0
    2.5750    2.8640    2.1340 H   0  0  0  0  0  0  0  0  0  0  0  0
    2.2770    0.2760    2.1320 H   0  0  0  0  0  0  0  0  0  0  0  0
    2.4380    0.3070    0.3880 H   0  0  0  0  0  0  0  0  0  0  0  0
    4.8120    1.2920    0.6620 H   0  0  0  0  0  0  0  0  0  0  0  0
    4.6040    1.2310    2.4160 H   0  0  0  0  0  0  0  0  0  0  0  0
    4.2690   -1.2960    2.2640 H   0  0  0  0  0  0  0  0  0  0  0  0
    4.4900   -1.2050    0.4990 H   0  0  0  0  0  0  0  0  0  0  0  0
    6.8060    0.0940    1.7610 H   0  0  0  0  0  0  0  0  0  0  0  0
    7.1540   -3.8720    1.5730 H   0  0  0  0  0  0  0  0  0  0  0  0
    5.5050   -3.1000    1.4030 H   0  0  0  0  0  0  0  0  0  0  0  0
    8.6490   -0.8030    1.9490 H   0  0  0  0  0  0  0  0  0  0  0  0
    8.8370   -2.6120    1.8680 H   0  0  0  0  0  0  0  0  0  0  0  0
    4.0070    3.1600   -0.1920 O   0  0  0  0  0  0  0  0  0  0  0  0
    4.4480    3.4960    0.6760 H   0  0  0  0  0  0  0  0  0  0  0  0
  1 13  1  0  0  0  0
  2  5  1  0  0  0  0
  2  1  1  0  0  0  0
  2 14  1  1  0  0  0
  3  2  1  0  0  0  0
  4  3  2  0  0  0  0
  5  6  1  0  0  0  0
  5 15  1  0  0  0  0
  6 18  1  0  0  0  0
  7  6  1  0  0  0  0
  7  8  1  0  0  0  0
  7 19  1  0  0  0  0
  8  9  1  0  0  0  0
  8 21  1  0  0  0  0
  9 11  1  0  0  0  0
 10 22  1  0  0  0  0
 10  9  2  0  0  0  0
 11 25  1  0  0  0  0
 11 24  1  0  0  0  0
 12  1  1  0  0  0  0
 16  5  1  0  0  0  0
 17  6  1  0  0  0  0
 20  7  1  0  0  0  0
 23 10  1  0  0  0  0
 26  3  1  0  0  0  0
 26 27  1  0  0  0  0
M  END
