
 OpenBabel04201614323D

 17 16  0  0  1  0  0  0  0  0999 V2000
    0.0820   -0.1180    0.0000 N   0  0  0  0  0  0  0  0  0  0  0  0
    1.5390   -0.0320    0.0000 C   0  0  2  0  0  0  0  0  0  0  0  0
    1.9960    1.4080    0.0000 C   0  0  0  0  0  0  0  0  0  0  0  0
    1.1990    2.3450    0.0000 O   0  0  0  0  0  0  0  0  0  0  0  0
    2.1050   -0.7890   -1.2370 C   0  0  0  0  0  0  0  0  0  0  0  0
    1.7210   -2.2660   -1.3810 C   0  0  0  0  0  0  0  0  0  0  0  0
    0.8380   -2.6390   -2.1390 O   0  0  0  0  0  0  0  0  0  0  0  0
    2.3450   -3.1520   -0.6520 N   0  0  0  0  0  0  0  0  0  0  0  0
   -0.5440    0.7620    0.0000 H   0  0  0  0  0  0  0  0  0  0  0  0
   -0.4350   -1.0660    0.0000 H   0  0  0  0  0  0  0  0  0  0  0  0
    1.9180   -0.4950    0.9300 H   0  0  0  0  0  0  0  0  0  0  0  0
    1.7160    3.2360    0.0000 H   0  0  0  0  0  0  0  0  0  0  0  0
    1.7720   -0.2820   -2.1640 H   0  0  0  0  0  0  0  0  0  0  0  0
    3.2070   -0.7130   -1.2650 H   0  0  0  0  0  0  0  0  0  0  0  0
    1.9130   -4.0780   -0.7110 H   0  0  0  0  0  0  0  0  0  0  0  0
    3.0120   -2.8000    0.0340 H   0  0  0  0  0  0  0  0  0  0  0  0
    3.4110    1.6170    0.0000 O   0  0  0  0  0  0  0  0  0  0  0  0
  1  2  1  0  0  0  0
  2 11  1  1  0  0  0
  3  2  1  0  0  0  0
  4  3  1  0  0  0  0
  5  2  1  0  0  0  0
  6  5  1  0  0  0  0
  6  8  1  0  0  0  0
  7  6  2  0  0  0  0
  8 16  1  0  0  0  0
  9  1  1  0  0  0  0
 10  1  1  0  0  0  0
 12  4  1  0  0  0  0
 13  5  1  0  0  0  0
 14  5  1  0  0  0  0
 15  8  1  0  0  0  0
 17  3  2  0  0  0  0
M  END
