
 OpenBabel04201614333D

 15 14  0  0  1  0  0  0  0  0999 V2000
    1.8840    0.0200    1.3720 N   0  0  0  0  0  0  0  0  0  0  0  0
    3.3290    0.3680    1.3360 C   0  0  2  0  0  0  0  0  0  0  0  0
    3.7410    1.8830    1.3600 C   0  0  0  0  0  0  0  0  0  0  0  0
    2.9670    2.8080    1.4520 O   0  0  0  0  0  0  0  0  0  0  0  0
    3.8740   -0.3760    0.1020 C   0  0  0  0  0  0  0  0  0  0  0  0
    5.4160   -0.5480    0.0310 C   0  0  0  0  0  0  0  0  0  0  0  0
    6.0400   -0.3410    1.0750 O   0  5  0  0  0  0  0  0  0  0  0  0
    5.8370   -0.8870   -1.0760 O   0  0  0  0  0  0  0  0  0  0  0  0
    1.3170    0.8490    1.4780 H   0  0  0  0  0  0  0  0  0  0  0  0
    1.6760   -0.5700    0.5790 H   0  0  0  0  0  0  0  0  0  0  0  0
    3.7820   -0.0830    2.2410 H   0  0  0  0  0  0  0  0  0  0  0  0
    3.4800   -1.4090    0.0920 H   0  0  0  0  0  0  0  0  0  0  0  0
    3.5230    0.0800   -0.8380 H   0  0  0  0  0  0  0  0  0  0  0  0
    5.0710    2.1320    1.3010 O   0  0  0  0  0  0  0  0  0  0  0  0
    5.5280    1.2720    1.1640 H   0  0  0  0  0  0  0  0  0  0  0  0
  1  9  1  0  0  0  0
  2  3  1  0  0  0  0
  2  1  1  0  0  0  0
  2 11  1  1  0  0  0
  3  4  2  0  0  0  0
  5  2  1  0  0  0  0
  6  5  1  0  0  0  0
  6  7  1  0  0  0  0
  8  6  2  0  0  0  0
 10  1  1  0  0  0  0
 12  5  1  0  0  0  0
 13  5  1  0  0  0  0
 14  3  1  0  0  0  0
 15 14  1  0  0  0  0
M  CHG  1   7  -1
M  END
