
 OpenBabel07231507463D

  3  2  0  0  0  0  0  0  0  0999 V2000
   -4.4489    1.3532    0.0000 N   0  0  0  0  0  0  0  0  0  0  0  0
   -3.2320    1.3794    0.0000 N   0  0  0  0  0  0  0  0  0  0  0  0
   -2.0151    1.4051    0.0000 N   0  0  0  0  0  0  0  0  0  0  0  0
  1  2  2  0  0  0  0
  2  3  2  0  0  0  0
M  CHG  3   1   -1  2   1   3   -1
M  END
