
 OpenBabel05241609283D

 10 10  0  0  0  0  0  0  0  0999 V2000
    2.2100   -0.6950   -1.6450 H   0  0  0  0  0  0  0  0  0  0  0  0
    0.0010   -2.2420   -1.7700 H   0  0  0  0  0  0  0  0  0  0  0  0
    1.1870   -0.3420   -1.6820 C   0  0  0  0  0  0  0  0  0  0  0  0
    0.0190   -1.1600   -1.7450 C   0  5  0  0  0  0  0  0  0  0  0  0
    0.7700    1.0220   -1.6290 C   0  0  0  0  0  0  0  0  0  0  0  0
   -1.1210   -0.3010   -1.7370 C   0  0  0  0  0  0  0  0  0  0  0  0
    1.4200    1.8830   -1.5400 H   0  0  0  0  0  0  0  0  0  0  0  0
   -0.6570    1.0460   -1.6620 C   0  0  0  0  0  0  0  0  0  0  0  0
   -2.1560   -0.6170   -1.7480 H   0  0  0  0  0  0  0  0  0  0  0  0
   -1.2790    1.9300   -1.6060 H   0  0  0  0  0  0  0  0  0  0  0  0
  3  4  1  0  0  0  0
  3  1  1  0  0  0  0
  4  2  1  0  0  0  0
  5  3  2  0  0  0  0
  5  7  1  0  0  0  0
  6  9  1  0  0  0  0
  6  4  1  0  0  0  0
  6  8  2  0  0  0  0
  8  5  1  0  0  0  0
  8 10  1  0  0  0  0
M  CHG  1   4  -1
M  END
