
 OpenBabel04201614333D

 14 13  0  0  1  0  0  0  0  0999 V2000
    0.1020   -0.1430    0.0000 N   0  0  0  0  0  0  0  0  0  0  0  0
    1.5580   -0.0290    0.0000 C   0  0  2  0  0  0  0  0  0  0  0  0
    1.9860    1.4190    0.0000 C   0  0  0  0  0  0  0  0  0  0  0  0
    1.1650    2.3480    0.0000 O   0  0  0  0  0  0  0  0  0  0  0  0
    2.1110   -0.8070   -1.2100 C   0  0  0  0  0  0  0  0  0  0  0  0
    3.9160   -0.8560   -1.1680 S   0  0  0  0  0  0  0  0  0  0  0  0
   -0.5400    0.7250    0.0000 H   0  0  0  0  0  0  0  0  0  0  0  0
   -0.3970   -1.1010    0.0000 H   0  0  0  0  0  0  0  0  0  0  0  0
    1.9420   -0.4850    0.9310 H   0  0  0  0  0  0  0  0  0  0  0  0
    1.6650    3.2490    0.0000 H   0  0  0  0  0  0  0  0  0  0  0  0
    1.7430   -1.8490   -1.2180 H   0  0  0  0  0  0  0  0  0  0  0  0
    1.7780   -0.3570   -2.1680 H   0  0  0  0  0  0  0  0  0  0  0  0
    4.1230    0.0360   -2.1340 H   0  0  0  0  0  0  0  0  0  0  0  0
    3.3960    1.6550    0.0000 O   0  0  0  0  0  0  0  0  0  0  0  0
  1  2  1  0  0  0  0
  1  7  1  0  0  0  0
  1  8  1  0  0  0  0
  2  3  1  0  0  0  0
  2  9  1  1  0  0  0
  3  4  1  0  0  0  0
  3 14  2  0  0  0  0
  4 10  1  0  0  0  0
  5  6  1  0  0  0  0
  5  2  1  0  0  0  0
 11  5  1  0  0  0  0
 12  5  1  0  0  0  0
 13  6  1  0  0  0  0
M  END
