
 OpenBabel04201614333D

 20 19  0  0  1  0  0  0  0  0999 V2000
    0.0890   -0.1530    0.0000 N   0  0  0  0  0  0  0  0  0  0  0  0
    1.5440   -0.0310    0.0000 C   0  0  2  0  0  0  0  0  0  0  0  0
    1.9650    1.4190    0.0000 C   0  0  0  0  0  0  0  0  0  0  0  0
    1.1460    2.3350    0.0000 O   0  0  0  0  0  0  0  0  0  0  0  0
    2.1030   -0.7690   -1.2360 C   0  0  0  0  0  0  0  0  0  0  0  0
    3.6610   -0.7880   -1.3840 C   0  0  0  0  0  0  0  0  0  0  0  0
    4.2860   -1.4500   -2.6180 C   0  0  0  0  0  0  0  0  0  0  0  0
    5.4950   -1.4500   -2.7890 O   0  0  0  0  0  0  0  0  0  0  0  0
    3.5190   -2.0050   -3.5220 N   0  0  0  0  0  0  0  0  0  0  0  0
   -0.4860    0.6150    0.0000 H   0  0  0  0  0  0  0  0  0  0  0  0
   -0.3500   -1.0070    0.0000 H   0  0  0  0  0  0  0  0  0  0  0  0
    1.9390   -0.4950    0.9230 H   0  0  0  0  0  0  0  0  0  0  0  0
    1.6410    3.2380    0.0000 H   0  0  0  0  0  0  0  0  0  0  0  0
    1.7390   -1.8160   -1.2230 H   0  0  0  0  0  0  0  0  0  0  0  0
    1.6600   -0.3180   -2.1480 H   0  0  0  0  0  0  0  0  0  0  0  0
    4.0570    0.2440   -1.3950 H   0  0  0  0  0  0  0  0  0  0  0  0
    4.1220   -1.2490   -0.4910 H   0  0  0  0  0  0  0  0  0  0  0  0
    2.5170   -1.9110   -3.3540 H   0  0  0  0  0  0  0  0  0  0  0  0
    4.0110   -2.3650   -4.3420 H   0  0  0  0  0  0  0  0  0  0  0  0
    3.3740    1.6620    0.0000 O   0  0  0  0  0  0  0  0  0  0  0  0
  1 10  1  0  0  0  0
  1  2  1  0  0  0  0
  2 12  1  1  0  0  0
  3  2  1  0  0  0  0
  4  3  1  0  0  0  0
  5 14  1  0  0  0  0
  5  2  1  0  0  0  0
  6  5  1  0  0  0  0
  6 17  1  0  0  0  0
  7  6  1  0  0  0  0
  8  7  2  0  0  0  0
  9 18  1  0  0  0  0
  9  7  1  0  0  0  0
 11  1  1  0  0  0  0
 13  4  1  0  0  0  0
 15  5  1  0  0  0  0
 16  6  1  0  0  0  0
 19  9  1  0  0  0  0
 20  3  2  0  0  0  0
M  END
