
 OpenBabel04201614333D

 10  9  0  0  0  0  0  0  0  0999 V2000
    0.1620   -0.2020    0.0000 N   0  0  0  0  0  0  0  0  0  0  0  0
    1.6120   -0.0310    0.0000 C   0  0  0  0  0  0  0  0  0  0  0  0
    1.9850    1.4320    0.0000 C   0  0  0  0  0  0  0  0  0  0  0  0
    1.1370    2.3190    0.0000 O   0  0  0  0  0  0  0  0  0  0  0  0
   -0.2990   -1.1790    0.0000 H   0  0  0  0  0  0  0  0  0  0  0  0
   -0.5130    0.6410    0.0000 H   0  0  0  0  0  0  0  0  0  0  0  0
    2.0550   -0.5190    0.8880 H   0  0  0  0  0  0  0  0  0  0  0  0
    2.0550   -0.5190   -0.8880 H   0  0  0  0  0  0  0  0  0  0  0  0
    3.3850    1.7220    0.0000 O   0  0  0  0  0  0  0  0  0  0  0  0
    3.9190    0.8410    0.0000 H   0  0  0  0  0  0  0  0  0  0  0  0
  1  2  1  0  0  0  0
  1  5  1  0  0  0  0
  1  6  1  0  0  0  0
  2  3  1  0  0  0  0
  2  7  1  0  0  0  0
  3  4  2  0  0  0  0
  3  9  1  0  0  0  0
  8  2  1  0  0  0  0
  9 10  1  0  0  0  0
M  END
