
 OpenBabel04201614333D

 20 20  0  0  1  0  0  0  0  0999 V2000
    0.1020   -0.1430    0.0000 N   0  0  0  0  0  0  0  0  0  0  0  0
    1.5580   -0.0290    0.0000 C   0  0  2  0  0  0  0  0  0  0  0  0
    1.9860    1.4190    0.0000 C   0  0  0  0  0  0  0  0  0  0  0  0
    1.1650    2.3480    0.0000 O   0  0  0  0  0  0  0  0  0  0  0  0
    2.0470   -0.7320   -1.2770 C   0  0  0  0  0  0  0  0  0  0  0  0
    2.9520   -1.8920   -0.9780 C   0  0  0  0  0  0  0  0  0  0  0  0
    3.3350   -2.3200    0.2910 N   0  0  0  0  0  0  0  0  0  0  0  0
    3.5170   -2.6780   -1.9720 C   0  0  0  0  0  0  0  0  0  0  0  0
    4.1180   -3.3630   -0.0460 C   0  0  0  0  0  0  0  0  0  0  0  0
    4.2820   -3.6410   -1.3680 N   0  0  0  0  0  0  0  0  0  0  0  0
   -0.5400    0.7250    0.0000 H   0  0  0  0  0  0  0  0  0  0  0  0
   -0.3970   -1.1010    0.0000 H   0  0  0  0  0  0  0  0  0  0  0  0
    1.9280   -0.4680    0.9410 H   0  0  0  0  0  0  0  0  0  0  0  0
    1.2060   -1.1130   -1.8930 H   0  0  0  0  0  0  0  0  0  0  0  0
    2.5980   -0.0310   -1.9350 H   0  0  0  0  0  0  0  0  0  0  0  0
    3.3620   -2.5300   -3.0370 H   0  0  0  0  0  0  0  0  0  0  0  0
    4.5790   -3.9230    0.7580 H   0  0  0  0  0  0  0  0  0  0  0  0
    4.8370   -4.3880   -1.8100 H   0  0  0  0  0  0  0  0  0  0  0  0
    3.3960    1.6550    0.0000 O   0  0  0  0  0  0  0  0  0  0  0  0
    3.8960    0.7540    0.0000 H   0  0  0  0  0  0  0  0  0  0  0  0
  1  2  1  0  0  0  0
  2 13  1  1  0  0  0
  3  2  1  0  0  0  0
  4  3  2  0  0  0  0
  5  6  1  0  0  0  0
  5  2  1  0  0  0  0
  6  7  1  0  0  0  0
  8 10  1  0  0  0  0
  8  6  2  0  0  0  0
  9  7  2  0  0  0  0
  9 17  1  0  0  0  0
 10  9  1  0  0  0  0
 11  1  1  0  0  0  0
 12  1  1  0  0  0  0
 14  5  1  0  0  0  0
 15  5  1  0  0  0  0
 16  8  1  0  0  0  0
 18 10  1  0  0  0  0
 19  3  1  0  0  0  0
 20 19  1  0  0  0  0
M  END
