
 OpenBabel11191514073D

  3  2  0  0  0  0  0  0  0  0999 V2000
    1.1133    0.0206    0.0256 C   0  6  0  0  0  0  0  0  0  0  0  0
    2.2266    0.0206    0.0256 N   0  0  0  0  0  0  0  0  0  0  0  0
    3.3220    0.0206    0.0308 H   0  0  0  0  0  0  0  0  0  0  0  0
  1  2  3  0  0  0  0
  2  3  1  0  0  0  0
M  CHG  1   1   -1  2   1
M  END
