
 OpenBabel11031515043D

  9  9  0  0  0  0  0  0  0  0999 V2000
   -1.1886   -0.0056   -0.0005 C   0  0  0  0  0  0  0  0  0  0  0  0
   -0.3419    1.0812    0.0001 C   0  0  0  0  0  0  0  0  0  0  0  0
    0.9709    0.6789    0.0004 N   0  0  0  0  0  0  0  0  0  0  0  0
    0.9305   -0.6336   -0.0002 C   0  0  0  0  0  0  0  0  0  0  0  0
   -0.3569   -1.0911    0.0026 N   0  0  0  0  0  0  0  0  0  0  0  0
   -0.6369   -2.0606    0.0079 H   0  0  0  0  0  0  0  0  0  0  0  0
   -2.2205   -0.0014   -0.0028 H   0  0  0  0  0  0  0  0  0  0  0  0
   -0.6526    2.0653    0.0003 H   0  0  0  0  0  0  0  0  0  0  0  0
    1.7643   -1.2416   -0.0024 H   0  0  0  0  0  0  0  0  0  0  0  0
  1  2  2  0  0  0  0
  1  5  1  0  0  0  0
  1  7  1  0  0  0  0
  2  3  1  0  0  0  0
  2  8  1  0  0  0  0
  3  4  2  0  0  0  0
  4  5  1  0  0  0  0
  4  9  1  0  0  0  0
  5  6  1  0  0  0  0
M  END
