
 OpenBabel07231507533D

  3  2  0  0  0  0  0  0  0  0999 V2000
   -6.6335    2.2988   -0.0000 N   0  0  0  0  0  0  0  0  0  0  0  0
   -5.3764    2.2927   -0.0000 C   0  0  0  0  0  0  0  0  0  0  0  0
   -3.9669    2.2861   -0.0000 S   0  0  0  0  0  0  0  0  0  0  0  0
  1  2  2  0  0  0  0
  2  3  2  0  0  0  0
M  CHG  1   1   -1
M  END
