
 OpenBabel04201614333D

 25 24  0  0  1  0  0  0  0  0999 V2000
    1.2250    0.6260    1.3440 N   0  0  0  0  0  0  0  0  0  0  0  0
    2.6800    0.7480    1.3440 C   0  0  2  0  0  0  0  0  0  0  0  0
    3.1010    2.1980    1.3440 C   0  0  0  0  0  0  0  0  0  0  0  0
    2.2820    3.1140    1.3440 O   0  0  0  0  0  0  0  0  0  0  0  0
    3.2950    0.0030    0.1220 C   0  0  0  0  0  0  0  0  0  0  0  0
    4.8510    0.0290    0.0850 C   0  0  0  0  0  0  0  0  0  0  0  0
    5.4890   -0.6100   -1.1560 C   0  0  0  0  0  0  0  0  0  0  0  0
    7.0190   -0.4260   -1.1030 C   0  0  0  0  0  0  0  0  0  0  0  0
    7.6300   -1.0520   -2.3100 N   0  0  0  0  0  0  0  0  0  0  0  0
    0.5780    1.4910    1.3440 H   0  0  0  0  0  0  0  0  0  0  0  0
    0.7310   -0.3350    1.3440 H   0  0  0  0  0  0  0  0  0  0  0  0
    3.0580    0.2980    2.2810 H   0  0  0  0  0  0  0  0  0  0  0  0
    2.8810    0.4410   -0.8110 H   0  0  0  0  0  0  0  0  0  0  0  0
    2.9390   -1.0460    0.1190 H   0  0  0  0  0  0  0  0  0  0  0  0
    5.2050    1.0780    0.1100 H   0  0  0  0  0  0  0  0  0  0  0  0
    5.2440   -0.4320    1.0150 H   0  0  0  0  0  0  0  0  0  0  0  0
    5.1990   -1.6800   -1.2070 H   0  0  0  0  0  0  0  0  0  0  0  0
    5.0620   -0.1350   -2.0650 H   0  0  0  0  0  0  0  0  0  0  0  0
    7.2780    0.6590   -1.0380 H   0  0  0  0  0  0  0  0  0  0  0  0
    7.4290   -0.8660   -0.1630 H   0  0  0  0  0  0  0  0  0  0  0  0
    8.6560   -0.9870   -2.3370 H   0  0  0  0  0  0  0  0  0  0  0  0
    7.4060   -2.0530   -2.3890 H   0  0  0  0  0  0  0  0  0  0  0  0
    7.2960   -0.6270   -3.1860 H   0  0  0  0  0  0  0  0  0  0  0  0
    4.5100    2.4410    1.3440 O   0  0  0  0  0  0  0  0  0  0  0  0
    5.0140    1.5430    1.3440 H   0  0  0  0  0  0  0  0  0  0  0  0
  1 11  1  0  0  0  0
  1 10  1  0  0  0  0
  1  2  1  0  0  0  0
  2 12  1  1  0  0  0
  3  2  1  0  0  0  0
  4  3  2  0  0  0  0
  5  2  1  0  0  0  0
  6 15  1  0  0  0  0
  6  5  1  0  0  0  0
  6 16  1  0  0  0  0
  7  8  1  0  0  0  0
  7  6  1  0  0  0  0
  8 19  1  0  0  0  0
  8 20  1  0  0  0  0
  9  8  1  0  0  0  0
 13  5  1  0  0  0  0
 14  5  1  0  0  0  0
 17  7  1  0  0  0  0
 18  7  1  0  0  0  0
 21  9  1  0  0  0  0
 22  9  1  0  0  0  0
 23  9  1  0  0  0  0
 24 25  1  0  0  0  0
 24  3  1  0  0  0  0
M  END
