
 OpenBabel04201614333D

 20 19  0  0  1  0  0  0  0  0999 V2000
    0.0710   -0.2150    0.0000 N   0  0  0  0  0  0  0  0  0  0  0  0
    1.5190   -0.0240    0.0000 C   0  0  2  0  0  0  0  0  0  0  0  0
    1.8710    1.4440    0.0000 C   0  0  0  0  0  0  0  0  0  0  0  0
    1.0020    2.3280    0.0000 O   0  0  0  0  0  0  0  0  0  0  0  0
    2.1460   -0.7450   -1.2250 C   0  0  0  0  0  0  0  0  0  0  0  0
    1.9730   -2.2780   -1.2660 C   0  0  0  0  0  0  0  0  0  0  0  0
    2.9960   -2.9730   -2.5750 S   0  0  0  0  0  0  0  0  0  0  0  0
    2.2880   -4.6250   -2.6170 C   0  0  0  0  0  0  0  0  0  0  0  0
   -0.6150    0.6190    0.0000 H   0  0  0  0  0  0  0  0  0  0  0  0
   -0.3760   -1.1980    0.0000 H   0  0  0  0  0  0  0  0  0  0  0  0
    1.9320   -0.4570    0.9300 H   0  0  0  0  0  0  0  0  0  0  0  0
    1.7390   -0.3160   -2.1630 H   0  0  0  0  0  0  0  0  0  0  0  0
    3.2310   -0.5280   -1.2620 H   0  0  0  0  0  0  0  0  0  0  0  0
    2.2480   -2.7450   -0.3020 H   0  0  0  0  0  0  0  0  0  0  0  0
    0.9130   -2.5360   -1.4530 H   0  0  0  0  0  0  0  0  0  0  0  0
    2.3370   -5.1030   -1.6220 H   0  0  0  0  0  0  0  0  0  0  0  0
    2.8330   -5.2620   -3.3350 H   0  0  0  0  0  0  0  0  0  0  0  0
    1.2290   -4.5820   -2.9300 H   0  0  0  0  0  0  0  0  0  0  0  0
    3.2670    1.7530    0.0000 O   0  0  0  0  0  0  0  0  0  0  0  0
    3.8130    0.8800    0.0000 H   0  0  0  0  0  0  0  0  0  0  0  0
  2  3  1  0  0  0  0
  2  1  1  0  0  0  0
  2 11  1  1  0  0  0
  4  3  2  0  0  0  0
  5  2  1  0  0  0  0
  6  5  1  0  0  0  0
  6 14  1  0  0  0  0
  7  6  1  0  0  0  0
  8  7  1  0  0  0  0
  8 16  1  0  0  0  0
  9  1  1  0  0  0  0
 10  1  1  0  0  0  0
 12  5  1  0  0  0  0
 13  5  1  0  0  0  0
 15  6  1  0  0  0  0
 17  8  1  0  0  0  0
 18  8  1  0  0  0  0
 19  3  1  0  0  0  0
 20 19  1  0  0  0  0
M  END
