
 OpenBabel03211611303D

  3  2  0  0  0  0  0  0  0  0999 V2000
    0.9513    0.0206   -0.3897 O   0  5  0  0  0  0  0  0  0  0  0  0
    2.0502    0.0206    0.1297 N   0  0  0  0  0  0  0  0  0  0  0  0
    2.1777    0.0206    1.3885 O   0  0  0  0  0  0  0  0  0  0  0  0
  1  2  2  0  0  0  0
  3  2  1  0  0  0  0
M  CHG  2   2   1   3   -1
M  END
