
 OpenBabel04201614333D

 23 23  0  0  1  0  0  0  0  0999 V2000
    0.1100   -0.2000    0.0000 N   0  0  0  0  0  0  0  0  0  0  0  0
    1.5610   -0.0380    0.0000 C   0  0  2  0  0  0  0  0  0  0  0  0
    1.9430    1.4230    0.0000 C   0  0  0  0  0  0  0  0  0  0  0  0
    1.0760    2.3410    0.0000 O   0  0  0  0  0  0  0  0  0  0  0  0
    2.1750   -0.7190   -1.2610 C   0  0  0  0  0  0  0  0  0  0  0  0
    1.8900   -2.2180   -1.4360 C   0  0  0  0  0  0  0  0  0  0  0  0
    0.7380   -2.6290   -2.1170 C   0  0  0  0  0  0  0  0  0  0  0  0
    2.7330   -3.1780   -0.8700 C   0  0  0  0  0  0  0  0  0  0  0  0
    0.4240   -3.9800   -2.2140 C   0  0  0  0  0  0  0  0  0  0  0  0
    2.4240   -4.5310   -0.9770 C   0  0  0  0  0  0  0  0  0  0  0  0
    1.2680   -4.9320   -1.6460 C   0  0  0  0  0  0  0  0  0  0  0  0
   -0.5610    0.6470    0.0000 H   0  0  0  0  0  0  0  0  0  0  0  0
   -0.3580   -1.1730    0.0000 H   0  0  0  0  0  0  0  0  0  0  0  0
    1.9730   -0.5000    0.9170 H   0  0  0  0  0  0  0  0  0  0  0  0
    1.8400   -0.1820   -2.1730 H   0  0  0  0  0  0  0  0  0  0  0  0
    3.2720   -0.5690   -1.2620 H   0  0  0  0  0  0  0  0  0  0  0  0
    0.0610   -1.8940   -2.5330 H   0  0  0  0  0  0  0  0  0  0  0  0
    3.6190   -2.8730   -0.3310 H   0  0  0  0  0  0  0  0  0  0  0  0
   -0.4830   -4.2850   -2.7150 H   0  0  0  0  0  0  0  0  0  0  0  0
    3.0750   -5.2690   -0.5310 H   0  0  0  0  0  0  0  0  0  0  0  0
    1.0200   -5.9800   -1.7180 H   0  0  0  0  0  0  0  0  0  0  0  0
    3.3450    1.7040    0.0000 O   0  0  0  0  0  0  0  0  0  0  0  0
    3.8730    0.8200    0.0000 H   0  0  0  0  0  0  0  0  0  0  0  0
  1  2  1  0  0  0  0
  2 14  1  1  0  0  0
  3  2  1  0  0  0  0
  4  3  2  0  0  0  0
  5  2  1  0  0  0  0
  6  5  1  0  0  0  0
  6  8  2  0  0  0  0
  7  6  1  0  0  0  0
  8 18  1  0  0  0  0
  9  7  2  0  0  0  0
  9 11  1  0  0  0  0
 10  8  1  0  0  0  0
 10 20  1  0  0  0  0
 11 10  2  0  0  0  0
 12  1  1  0  0  0  0
 13  1  1  0  0  0  0
 15  5  1  0  0  0  0
 16  5  1  0  0  0  0
 17  7  1  0  0  0  0
 19  9  1  0  0  0  0
 21 11  1  0  0  0  0
 22 23  1  0  0  0  0
 22  3  1  0  0  0  0
M  END
