
 OpenBabel04201614333D

 17 17  0  0  1  0  0  0  0  0999 V2000
    0.1120    0.6840    0.1240 N   0  0  0  0  0  0  0  0  0  0  0  0
    1.6220    0.5300   -0.0390 C   0  0  2  0  0  0  0  0  0  0  0  0
    2.2550    1.5280   -1.0050 C   0  0  0  0  0  0  0  0  0  0  0  0
    1.5020    2.3640   -1.5650 O   0  0  0  0  0  0  0  0  0  0  0  0
    1.8500   -0.8690   -0.5930 C   0  0  0  0  0  0  0  0  0  0  0  0
    0.5980   -1.0390   -1.4700 C   0  0  0  0  0  0  0  0  0  0  0  0
   -0.5230   -0.4290   -0.6220 C   0  0  0  0  0  0  0  0  0  0  0  0
   -0.3750    1.4230    0.6520 H   0  0  0  0  0  0  0  0  0  0  0  0
    2.1120    0.6660    0.9140 H   0  0  0  0  0  0  0  0  0  0  0  0
    2.7360   -0.8610   -1.2500 H   0  0  0  0  0  0  0  0  0  0  0  0
    1.8180   -1.5950    0.2290 H   0  0  0  0  0  0  0  0  0  0  0  0
    0.5610   -0.3620   -2.3390 H   0  0  0  0  0  0  0  0  0  0  0  0
    0.4860   -2.1170   -1.6460 H   0  0  0  0  0  0  0  0  0  0  0  0
   -1.3140   -0.0300   -1.2790 H   0  0  0  0  0  0  0  0  0  0  0  0
   -0.8840   -1.1800    0.0980 H   0  0  0  0  0  0  0  0  0  0  0  0
    3.6610    1.5140   -1.2660 O   0  0  0  0  0  0  0  0  0  0  0  0
    3.9890    2.4750   -1.4350 H   0  0  0  0  0  0  0  0  0  0  0  0
  1  8  1  0  0  0  0
  2  1  1  0  0  0  0
  2  9  1  1  0  0  0
  3  2  1  0  0  0  0
  4  3  2  0  0  0  0
  5  2  1  0  0  0  0
  5 11  1  0  0  0  0
  6  7  1  0  0  0  0
  6  5  1  0  0  0  0
  7 15  1  0  0  0  0
  7  1  1  0  0  0  0
 10  5  1  0  0  0  0
 12  6  1  0  0  0  0
 13  6  1  0  0  0  0
 14  7  1  0  0  0  0
 16  3  1  0  0  0  0
 17 16  1  0  0  0  0
M  END
