
 OpenBabel04071609583D

 38 40  0  0  0  0  0  0  0  0999 V2000
    8.5726    2.8326    0.3592 C   0  0  0  0  0  0  0  0  0  0  0  0
    8.0758    4.1169    0.5776 C   0  0  0  0  0  0  0  0  0  0  0  0
    6.6990    4.3418    0.5689 C   0  0  0  0  0  0  0  0  0  0  0  0
    5.8155    3.2815    0.3425 C   0  0  0  0  0  0  0  0  0  0  0  0
    6.3008    1.9787    0.1239 C   0  0  0  0  0  0  0  0  0  0  0  0
    7.6959    1.7659    0.1338 C   0  0  0  0  0  0  0  0  0  0  0  0
    5.3169    0.8813   -0.1002 C   0  0  0  0  0  0  0  0  0  0  0  0
    5.6811   -0.3524   -0.2747 N   0  0  0  0  0  0  0  0  0  0  0  0
    4.7926   -1.4665   -0.4699 C   0  0  0  0  0  0  0  0  0  0  0  0
    5.3397   -2.7631   -0.6729 C   0  0  0  0  0  0  0  0  0  0  0  0
    6.7680   -2.9237   -0.6922 N   0  0  0  0  0  0  0  0  0  0  0  0
    7.4025   -4.0462   -0.8391 C   0  0  0  0  0  0  0  0  0  0  0  0
    8.8906   -4.1097   -0.8957 C   0  0  0  0  0  0  0  0  0  0  0  0
    9.7073   -2.9693   -0.7408 C   0  0  0  0  0  0  0  0  0  0  0  0
   11.0989   -3.0791   -0.8213 C   0  0  0  0  0  0  0  0  0  0  0  0
   11.6936   -4.3177   -1.0568 C   0  0  0  0  0  0  0  0  0  0  0  0
   10.8989   -5.4545   -1.2080 C   0  0  0  0  0  0  0  0  0  0  0  0
    9.5058   -5.3543   -1.1265 C   0  0  0  0  0  0  0  0  0  0  0  0
    9.1678   -1.7672   -0.5162 O   0  5  0  0  0  0  0  0  0  0  0  0
    6.8728   -4.9801   -0.9522 H   0  0  0  0  0  0  0  0  0  0  0  0
    4.2752    1.1624   -0.0969 H   0  0  0  0  0  0  0  0  0  0  0  0
    4.7501    3.4761    0.3417 H   0  0  0  0  0  0  0  0  0  0  0  0
    6.3151    5.3390    0.7394 H   0  0  0  0  0  0  0  0  0  0  0  0
    8.7590    4.9376    0.7542 H   0  0  0  0  0  0  0  0  0  0  0  0
    8.2031    0.5463   -0.0703 O   0  0  0  0  0  0  0  0  0  0  0  0
    8.9059   -6.2474   -1.2506 H   0  0  0  0  0  0  0  0  0  0  0  0
   11.3628   -6.4147   -1.3917 H   0  0  0  0  0  0  0  0  0  0  0  0
   12.7711   -4.3949   -1.1226 H   0  0  0  0  0  0  0  0  0  0  0  0
   11.7184   -2.1985   -0.7031 H   0  0  0  0  0  0  0  0  0  0  0  0
    9.6422    2.6620    0.3661 H   0  0  0  0  0  0  0  0  0  0  0  0
    4.4582   -3.8583   -0.8635 C   0  0  0  0  0  0  0  0  0  0  0  0
    3.0778   -3.6734   -0.8498 C   0  0  0  0  0  0  0  0  0  0  0  0
    2.5432   -2.4090   -0.6492 C   0  0  0  0  0  0  0  0  0  0  0  0
    3.3813   -1.3133   -0.4606 C   0  0  0  0  0  0  0  0  0  0  0  0
    4.8116   -4.8615   -1.0272 H   0  0  0  0  0  0  0  0  0  0  0  0
    2.4180   -4.5190   -0.9974 H   0  0  0  0  0  0  0  0  0  0  0  0
    1.4687   -2.2745   -0.6399 H   0  0  0  0  0  0  0  0  0  0  0  0
    2.9052   -0.3604   -0.3091 H   0  0  0  0  0  0  0  0  0  0  0  0
  1  2  2  0  0  0  0
  1  6  1  0  0  0  0
  1 30  1  0  0  0  0
  2  3  1  0  0  0  0
  2 24  1  0  0  0  0
  3  4  2  0  0  0  0
  3 23  1  0  0  0  0
  4  5  1  0  0  0  0
  4 22  1  0  0  0  0
  5  6  2  0  0  0  0
  5  7  1  0  0  0  0
  6 25  1  0  0  0  0
  7  8  2  0  0  0  0
  7 21  1  0  0  0  0
  8  9  1  0  0  0  0
  9 10  1  0  0  0  0
  9 34  2  0  0  0  0
 10 11  1  0  0  0  0
 10 31  2  0  0  0  0
 11 12  2  0  0  0  0
 12 13  1  0  0  0  0
 12 20  1  0  0  0  0
 13 14  2  0  0  0  0
 13 18  1  0  0  0  0
 14 15  1  0  0  0  0
 14 19  1  0  0  0  0
 15 16  2  0  0  0  0
 15 29  1  0  0  0  0
 16 17  1  0  0  0  0
 16 28  1  0  0  0  0
 17 18  2  0  0  0  0
 17 27  1  0  0  0  0
 18 26  1  0  0  0  0
 31 32  1  0  0  0  0
 31 35  1  0  0  0  0
 32 33  2  0  0  0  0
 32 36  1  0  0  0  0
 33 34  1  0  0  0  0
 33 37  1  0  0  0  0
 34 38  1  0  0  0  0
M  CHG  2  19  -1  25  -1
M  END
