
 OpenBabel04201614333D

 17 16  0  0  1  0  0  0  0  0999 V2000
    0.0800   -0.0830    0.0000 N   0  0  0  0  0  0  0  0  0  0  0  0
    1.5390   -0.0330    0.0000 C   0  0  2  0  0  0  0  0  0  0  0  0
    2.0320    1.3940    0.0000 C   0  0  0  0  0  0  0  0  0  0  0  0
    1.2680    2.3390    0.0000 O   0  0  0  0  0  0  0  0  0  0  0  0
    2.1160   -0.8180   -1.2260 C   0  0  2  0  0  0  0  0  0  0  0  0
    1.7430   -2.1880   -1.1620 O   0  0  0  0  0  0  0  0  0  0  0  0
    3.6540   -0.8420   -1.3610 C   0  0  0  0  0  0  0  0  0  0  0  0
   -0.5230    0.8130    0.0000 H   0  0  0  0  0  0  0  0  0  0  0  0
   -0.4610   -1.0180    0.0000 H   0  0  0  0  0  0  0  0  0  0  0  0
    1.9040   -0.5080    0.9290 H   0  0  0  0  0  0  0  0  0  0  0  0
    1.6910   -0.3780   -2.1540 H   0  0  0  0  0  0  0  0  0  0  0  0
    2.0660   -2.5920   -1.9730 H   0  0  0  0  0  0  0  0  0  0  0  0
    3.9860   -1.4330   -2.2350 H   0  0  0  0  0  0  0  0  0  0  0  0
    4.0830    0.1680   -1.5020 H   0  0  0  0  0  0  0  0  0  0  0  0
    4.1380   -1.2790   -0.4670 H   0  0  0  0  0  0  0  0  0  0  0  0
    3.4520    1.5670    0.0000 O   0  0  0  0  0  0  0  0  0  0  0  0
    3.9110    0.6450    0.0000 H   0  0  0  0  0  0  0  0  0  0  0  0
  1  8  1  0  0  0  0
  1  2  1  0  0  0  0
  2 10  1  1  0  0  0
  3  2  1  0  0  0  0
  4  3  2  0  0  0  0
  5 11  1  6  0  0  0
  5  6  1  0  0  0  0
  5  2  1  0  0  0  0
  7  5  1  0  0  0  0
  7 15  1  0  0  0  0
  9  1  1  0  0  0  0
 12  6  1  0  0  0  0
 13  7  1  0  0  0  0
 14  7  1  0  0  0  0
 16  3  1  0  0  0  0
 17 16  1  0  0  0  0
M  END
