
 OpenBabel07231507423D

  4  3  0  0  0  0  0  0  0  0999 V2000
   -1.4830    0.8135    0.1739 C   0  0  0  0  0  0  0  0  0  0  0  0
   -1.9381    1.7942   -0.6861 F   0  0  0  0  0  0  0  0  0  0  0  0
   -0.4465    0.1223   -0.4231 F   0  0  0  0  0  0  0  0  0  0  0  0
   -2.5134   -0.0604    0.4624 F   0  0  0  0  0  0  0  0  0  0  0  0
  1  2  1  0  0  0  0
  1  3  1  0  0  0  0
  1  4  1  0  0  0  0
M  CHG  1   1   -1
M  END
