
 OpenBabel04201614333D

 27 28  0  0  1  0  0  0  0  0999 V2000
    0.3830    8.1090    0.1900 N   0  0  0  0  0  0  0  0  0  0  0  0
    1.8390    8.2200    0.1880 C   0  0  2  0  0  0  0  0  0  0  0  0
    2.2720    9.6660    0.1570 C   0  0  0  0  0  0  0  0  0  0  0  0
    1.4590   10.5890    0.1370 O   0  0  0  0  0  0  0  0  0  0  0  0
    2.4030    7.4750   -1.0540 C   0  0  0  0  0  0  0  0  0  0  0  0
    2.1950    5.9570   -1.0410 C   0  0  0  0  0  0  0  0  0  0  0  0
    1.1480    5.2660   -1.6860 C   0  0  0  0  0  0  0  0  0  0  0  0
    2.9060    5.0020   -0.3460 C   0  0  0  0  0  0  0  0  0  0  0  0
    1.1930    3.8850   -1.4130 N   0  0  0  0  0  0  0  0  0  0  0  0
    2.2910    3.7470   -0.5780 C   0  0  0  0  0  0  0  0  0  0  0  0
    4.0370    5.1060    0.5050 C   0  0  0  0  0  0  0  0  0  0  0  0
    2.8100    2.5830    0.0300 C   0  0  0  0  0  0  0  0  0  0  0  0
    4.5360    3.9420    1.0900 C   0  0  0  0  0  0  0  0  0  0  0  0
    3.9330    2.6980    0.8550 C   0  0  0  0  0  0  0  0  0  0  0  0
   -0.2100    8.9140    0.1730 H   0  0  0  0  0  0  0  0  0  0  0  0
   -0.0810    7.2230    0.2090 H   0  0  0  0  0  0  0  0  0  0  0  0
    2.2380    7.7710    1.1170 H   0  0  0  0  0  0  0  0  0  0  0  0
    1.9690    7.8980   -1.9820 H   0  0  0  0  0  0  0  0  0  0  0  0
    3.4900    7.6620   -1.1510 H   0  0  0  0  0  0  0  0  0  0  0  0
    0.3810    5.7490   -2.2770 H   0  0  0  0  0  0  0  0  0  0  0  0
    0.5380    3.1560   -1.7160 H   0  0  0  0  0  0  0  0  0  0  0  0
    4.5030    6.0620    0.6980 H   0  0  0  0  0  0  0  0  0  0  0  0
    2.3440    1.6250   -0.1420 H   0  0  0  0  0  0  0  0  0  0  0  0
    5.4010    4.0020    1.7340 H   0  0  0  0  0  0  0  0  0  0  0  0
    4.3440    1.8130    1.3180 H   0  0  0  0  0  0  0  0  0  0  0  0
    3.6830    9.8980    0.1520 O   0  0  0  0  0  0  0  0  0  0  0  0
    4.1800    8.9970    0.1940 H   0  0  0  0  0  0  0  0  0  0  0  0
  1 16  1  0  0  0  0
  2  1  1  0  0  0  0
  2 17  1  1  0  0  0
  3  2  1  0  0  0  0
  4  3  2  0  0  0  0
  5  6  1  0  0  0  0
  5  2  1  0  0  0  0
  6  8  1  0  0  0  0
  7  9  1  0  0  0  0
  7  6  2  0  0  0  0
  8 11  1  0  0  0  0
  9 10  1  0  0  0  0
 10  8  2  0  0  0  0
 10 12  1  0  0  0  0
 11 22  1  0  0  0  0
 11 13  2  0  0  0  0
 12 14  2  0  0  0  0
 13 24  1  0  0  0  0
 14 13  1  0  0  0  0
 14 25  1  0  0  0  0
 15  1  1  0  0  0  0
 18  5  1  0  0  0  0
 19  5  1  0  0  0  0
 20  7  1  0  0  0  0
 21  9  1  0  0  0  0
 23 12  1  0  0  0  0
 26  3  1  0  0  0  0
 26 27  1  0  0  0  0
M  END
