
 OpenBabel04201614323D

 19 18  0  0  1  0  0  0  0  0999 V2000
    0.0950   -0.1810    0.0000 N   0  0  0  0  0  0  0  0  0  0  0  0
    1.5470   -0.0260    0.0000 C   0  0  2  0  0  0  0  0  0  0  0  0
    1.9350    1.4340    0.0000 C   0  0  0  0  0  0  0  0  0  0  0  0
    1.0900    2.3370    0.0000 O   0  0  0  0  0  0  0  0  0  0  0  0
    2.1660   -0.7720   -1.2480 C   0  0  0  0  0  0  0  0  0  0  0  0
    1.9770   -2.3080   -1.2170 C   0  0  0  0  0  0  0  0  0  0  0  0
    3.6830   -0.5510   -1.5010 C   0  0  0  0  0  0  0  0  0  0  0  0
   -0.5710    0.6690    0.0000 H   0  0  0  0  0  0  0  0  0  0  0  0
   -0.3770   -1.1520    0.0000 H   0  0  0  0  0  0  0  0  0  0  0  0
    1.9520   -0.4680    0.9280 H   0  0  0  0  0  0  0  0  0  0  0  0
    1.6380   -0.3950   -2.1500 H   0  0  0  0  0  0  0  0  0  0  0  0
    2.5290   -2.7820   -0.3840 H   0  0  0  0  0  0  0  0  0  0  0  0
    0.9140   -2.5900   -1.1070 H   0  0  0  0  0  0  0  0  0  0  0  0
    2.3230   -2.7830   -2.1550 H   0  0  0  0  0  0  0  0  0  0  0  0
    4.3070   -0.8760   -0.6470 H   0  0  0  0  0  0  0  0  0  0  0  0
    4.0430   -1.0940   -2.3960 H   0  0  0  0  0  0  0  0  0  0  0  0
    3.9280    0.5110   -1.6960 H   0  0  0  0  0  0  0  0  0  0  0  0
    3.3380    1.7080    0.0000 O   0  0  0  0  0  0  0  0  0  0  0  0
    3.8620    0.8210    0.0000 H   0  0  0  0  0  0  0  0  0  0  0  0
  2  3  1  0  0  0  0
  2  1  1  0  0  0  0
  2 10  1  1  0  0  0
  4  3  2  0  0  0  0
  5  6  1  0  0  0  0
  5  2  1  0  0  0  0
  6 13  1  0  0  0  0
  6 12  1  0  0  0  0
  7  5  1  0  0  0  0
  7 15  1  0  0  0  0
  8  1  1  0  0  0  0
  9  1  1  0  0  0  0
 11  5  1  0  0  0  0
 14  6  1  0  0  0  0
 16  7  1  0  0  0  0
 17  7  1  0  0  0  0
 18  3  1  0  0  0  0
 19 18  1  0  0  0  0
M  END
